java/SFINA/configuration_files/experiment-LineRemovalRandomCase30/output/time_8/iteration_1/flow/links.txt
id,current,real_power_from,reactive_power_from,real_power_to,reactive_power_to,resistance,reactance,susceptance,rateA,rateB,rateC,ratio,angle,angmin,angmax
1,0.0,12.38692595237919,-5.572302124412509,-12.352922036550748,2.674313871897642,0.02,0.06,0.03,130.0,130.0,130.0,0.0,0.0,-360.0,360.0
2,0.0,16.509452658099868,-4.351551494239292,-16.367555195855576,2.8934399593390814,0.05,0.19,0.02,130.0,130.0,130.0,0.0,0.0,-360.0,360.0
3,0.0,-29.61447457476475,11.065155181442817,30.228025619099753,-11.324599799189834,0.06,0.17,0.02,65.0,65.0,65.0,0.0,0.0,-360.0,360.0
4,0.0,13.967555197709059,-4.09343995056308,-13.94631342505264,4.178407041188743,0.01,0.04,0.0,130.0,130.0,130.0,0.0,0.0,-360.0,360.0
5,0.0,23.49239673405946,10.078210699131978,-23.155087005757057,-10.664033679082289,0.05,0.2,0.02,130.0,130.0,130.0,0.0,0.0,-360.0,360.0
6,0.0,45.39207784277062,8.69033904804207,-44.09947180172052,-6.73092084715377,0.06,0.18,0.02,65.0,65.0,65.0,0.0,0.0,-360.0,360.0
7,0.0,24.970666882367407,10.75940471110305,-24.89370862332712,-10.451571674941915,0.01,0.04,0.0,90.0,90.0,90.0,0.0,0.0,-360.0,360.0
8,0.0,23.155087005757142,10.841695438782654,-22.8,-10.899999999999906,0.05,0.12,0.01,70.0,70.0,70.0,0.0,0.0,-360.0,360.0
9,0.0,3.6329614195782884,2.085419493935517,-3.626554174549411,-2.986739282929174,0.03,0.08,0.01,130.0,130.0,130.0,0.0,0.0,-360.0,360.0
10,0.0,25.440729423648676,23.843937724215337,-25.30835091943353,-23.31442370735474,0.01,0.04,0.0,32.0,32.0,32.0,0.0,0.0,-360.0,360.0
11,0.0,10.844997329679332,-7.542058409181409,-10.84499732967933,7.941059842638398,0.0,0.21,0.0,65.0,65.0,65.0,0.0,0.0,-360.0,360.0
12,0.0,6.197141331321366,-4.309747662335312,-6.197141331321366,4.657177481947024,0.0,0.56,0.0,32.0,32.0,32.0,0.0,0.0,-360.0,360.0
13,0.0,0.0,0.0,0.0,0.0,0.0,0.21,0.0,65.0,65.0,65.0,0.0,0.0,-360.0,360.0
14,0.0,10.844997330079922,-7.941059842368031,-10.844997330079922,8.150060593231538,0.0,0.11,0.0,65.0,65.0,65.0,0.0,0.0,-360.0,360.0
15,0.0,-23.881712190994897,5.5461927657777395,23.881712190994897,-3.979957791603562,0.0,0.26,0.0,65.0,65.0,65.0,0.0,0.0,-360.0,360.0
16,0.0,-36.99999999999983,-8.579636982279316,36.99999999999982,10.655183079314494,0.0,0.14,0.0,65.0,65.0,65.0,0.0,0.0,-360.0,360.0
17,0.0,2.878196887510482,2.231467973325942,-2.8618402641534546,-2.196028622719048,0.12,0.26,0.0,32.0,32.0,32.0,0.0,0.0,-360.0,360.0
18,0.0,-0.9599090785076023,2.828126800556853,0.9663256781502707,-2.8162102583633266,0.07,0.13,0.0,32.0,32.0,32.0,0.0,0.0,-360.0,360.0
19,0.0,7.076734344916842,-0.2716367220612359,-7.030033603142797,0.3754161482257838,0.09,0.2,0.0,32.0,32.0,32.0,0.0,0.0,-360.0,360.0
20,0.0,-3.3381597358464092,0.596028622719136,3.3646576751502435,-0.5719395869883785,0.22,0.2,0.0,16.0,16.0,16.0,0.0,0.0,-360.0,360.0
21,0.0,-3.499999999999867,-1.800000000000099,3.51323619309652,1.8314359586046505,0.08,0.19,0.0,16.0,16.0,16.0,0.0,0.0,-360.0,360.0
22,0.0,3.2127142748939566,0.9254285497879038,-3.1999999999999753,-0.899999999999941,0.11,0.22,0.0,16.0,16.0,16.0,0.0,0.0,-360.0,360.0
23,0.0,11.807849598057492,4.333981129309407,-11.701842001108755,-4.104298002587135,0.06,0.13,0.0,16.0,16.0,16.0,0.0,0.0,-360.0,360.0
24,0.0,2.2018420011086954,0.7042980025869784,-2.199999999999966,-0.6999999999999419,0.03,0.07,0.0,32.0,32.0,32.0,0.0,0.0,-360.0,360.0
25,0.0,5.915586873348007,4.6247769164974315,-5.863221813294653,-4.502591776372941,0.09,0.21,0.0,32.0,32.0,32.0,0.0,0.0,-360.0,360.0
26,0.0,12.581164780687237,7.812578858847254,-12.513236193096308,-7.631435958604775,0.03,0.08,0.0,32.0,32.0,32.0,0.0,0.0,-360.0,360.0
27,0.0,0.6891335283103945,-13.192211602928912,-0.635084373953191,13.318326296429053,0.03,0.07,0.0,32.0,32.0,32.0,0.0,0.0,-360.0,360.0
28,0.0,-2.0281596471086587,-9.427605330716581,2.095364100511877,9.571614873723481,0.07,0.15,0.0,32.0,32.0,32.0,0.0,0.0,-360.0,360.0
29,0.0,-16.864915625949877,-24.51832629635083,16.954659880735782,24.697814805922643,0.01,0.02,0.0,32.0,32.0,32.0,0.0,0.0,-360.0,360.0
30,0.0,-15.743697628193967,-0.03727870443661473,16.00000000000042,0.5498834480495182,0.1,0.2,0.0,16.0,16.0,16.0,0.0,0.0,-360.0,360.0
31,0.0,2.539976019059161,8.69066087093951,-2.4416011415978707,-8.543098554747573,0.12,0.18,0.0,16.0,16.0,16.0,0.0,0.0,-360.0,360.0
32,0.0,16.068299775994834,-3.3691688991368847,-15.717895752204045,4.096931102394679,0.13,0.27,0.0,16.0,16.0,16.0,0.0,0.0,-360.0,360.0
33,0.0,-6.258398857683933,1.881618609614368,6.342661757240507,-1.7352672577529524,0.19,0.33,0.0,16.0,16.0,16.0,0.0,0.0,-360.0,360.0
34,0.0,3.546666738124698,2.3709334419495987,-3.4999999999999645,-2.3000000000000043,0.25,0.38,0.0,16.0,16.0,16.0,0.0,0.0,-360.0,360.0
35,0.0,-9.889328494590185,-0.635666182927605,10.000120630932832,0.8471784432181155,0.11,0.21,0.0,16.0,16.0,16.0,0.0,0.0,-360.0,360.0
36,0.0,-3.11789779355614,-9.348812999934644,3.11789779355614,9.769468180671506,0.0,0.4,0.0,65.0,65.0,65.0,0.0,0.0,-360.0,360.0
37,0.0,13.791981562427088,4.300619021350164,-13.332810587779809,-3.424019887932628,0.22,0.42,0.0,16.0,16.0,16.0,0.0,0.0,-360.0,360.0
38,0.0,7.122394950487271,1.6745629326654834,-6.951090403779483,-1.3533669075883799,0.32,0.6,0.0,16.0,16.0,16.0,0.0,0.0,-360.0,360.0
39,0.0,10.932810391600777,2.524020078147906,-10.599999676446798,-1.8999999872341946,0.24,0.45,0.0,16.0,16.0,16.0,0.0,0.0,-360.0,360.0
40,0.0,-4.691649080482481,-6.685576292441496,4.728910764165415,4.991793359785346,0.06,0.2,0.02,32.0,32.0,32.0,0.0,0.0,-360.0,360.0
41,0.0,1.6166037172440382,-5.261210798742052,-1.6110129685863568,4.357019645945387,0.02,0.06,0.01,32.0,32.0,32.0,0.0,0.0,-360.0,360.0
